K3T
                    3D
 Schrodinger Suite 2023-2.
 27 29  0  0  1  0            999 V2000
   -1.7671    0.7058    0.4506 C   0  0  0  0  0  0
   -3.6864    0.4261   -0.9649 C   0  0  0  0  0  0
   -3.3315   -0.9009   -1.1823 C   0  0  0  0  0  0
   -2.1936   -1.4500   -0.5926 C   0  0  0  0  0  0
   -1.3841   -0.6546    0.2412 C   0  0  0  0  0  0
   -0.1875   -0.9845    0.9463 C   0  0  0  0  0  0
    0.3173    0.0843    1.6716 C   0  0  0  0  0  0
    1.5166    0.1091    2.4804 C   0  0  0  0  0  0
    2.4897    1.0279    2.1032 N   0  0  0  0  0  0
    3.0958    0.9402    0.9780 C   0  0  0  0  0  0
    2.9829    0.0211   -0.0590 N   0  0  0  0  0  0
    4.5084    1.4370   -1.1874 C   0  0  0  0  0  0
    4.3059    2.1740    0.4480 S   0  0  0  0  0  0
    1.6574   -0.6271    3.4556 O   0  0  0  0  0  0
   -0.6422    1.5413    1.5092 S   0  0  0  0  0  0
   -2.9139    1.2479   -0.1491 C   0  0  0  0  0  0
   -4.7963    0.9250   -1.5545 F   0  0  0  0  0  0
    0.5143   -2.5593    0.8601 Cl  0  0  0  0  0  0
    4.9103   -0.5749   -0.5769 H   0  0  0  0  0  0
    3.8095   -0.4772   -1.9415 H   0  0  0  0  0  0
   -3.9485   -1.5173   -1.8201 H   0  0  0  0  0  0
   -1.9422   -2.4836   -0.7795 H   0  0  0  0  0  0
    3.8482    1.9605   -1.8805 H   0  0  0  0  0  0
    5.5383    1.5367   -1.5306 H   0  0  0  0  0  0
   -3.1970    2.2778    0.0135 H   0  0  0  0  0  0
    4.0811   -0.0034   -0.9977 C   0  0  0  0  0  0
    2.6080   -0.8967    0.1340 H   0  0  0  0  0  0
  1  5  1  0  0  0
  1 15  1  0  0  0
  1 16  2  0  0  0
  2  3  2  0  0  0
  2 16  1  0  0  0
  2 17  1  0  0  0
  3  4  1  0  0  0
  3 21  1  0  0  0
  4  5  2  0  0  0
  4 22  1  0  0  0
  5  6  1  0  0  0
  6  7  2  0  0  0
  6 18  1  0  0  0
  7  8  1  0  0  0
  7 15  1  0  0  0
  8  9  1  0  0  0
  8 14  2  0  0  0
  9 10  2  0  0  0
 10 11  1  0  0  0
 10 13  1  0  0  0
 11 26  1  0  0  0
 11 27  1  0  0  0
 12 13  1  0  0  0
 12 23  1  0  0  0
 12 24  1  0  0  0
 12 26  1  0  0  0
 16 25  1  0  0  0
 19 26  1  0  0  0
 20 26  1  0  0  0
M  END
> <i_epik_Tot_Q>
0

> <i_epik_Tot_abs_Q>
0

> <i_lp_mmshare_version>
62122

> <i_m_Source_File_Index>
1

> <i_rdkit__MolFileChiralFlag>
1

> <i_f3d_flags>
0

> <b_lp_Chiralities_Consistent>
1

> <b_m_subgroup_collapsed>
0

> <r_epik_Population>
0.920213212095007

> <r_epik_State_Penalty>
  0.0493

> <r_lp_Energy>
23.468906

> <s_epik_macro-pKa>
4.43,9.72

> <s_epik_tautomer>
0_1

> <s_lp_Force_Field>
S-OPLS

> <s_lp_Variant>
K3T-1

> <s_m_Source_File>
ligprep_K3T_ideal-out.sdf

> <s_m_Source_Path>
/home/stefano/Downloads/ligprep_K3T_ideal

> <s_m_entry_id>
9

> <s_m_entry_name>
ligprep_K3T_ideal-out.1

> <s_m_subgroup_title>
ligprep_K3T_ideal-out

> <s_m_subgroupid>
ligprep_K3T_ideal-out

> <FORMULA>
C12H8ClFN2OS2

> <OPENEYE_INCHI>
InChI=1S/C12H8ClFN2OS2/c13-9-7-2-1-6(14)5-8(7)19-10(9)11(17)16-12-15-3-4-18-12/h1-2,5H,3-4H2,(H,15,16,17)

> <OPENEYE_INCHIKEY>
WIYIHXHWMONCNB-UHFFFAOYSA-N

> <OPENEYE_ISO_SMILES>
c1cc2c(cc1F)sc(c2Cl)C(=O)NC3=NCCS3

$$$$
